SUMMARY OF JOB INFORMATION
  STEP      INC     ATT  ITRS     TOT TIME     STEP TIME      INC TIME
     1          1     1     2  0.100000E+01  0.100000E+01  0.100000E+01
     1          2     1     2  0.200000E+01  0.200000E+01  0.100000E+01
     1          3     1     2  0.300000E+01  0.300000E+01  0.100000E+01
     1          4     1     2  0.400000E+01  0.400000E+01  0.100000E+01
     1          5     1     2  0.500000E+01  0.500000E+01  0.100000E+01
     1          6     1     2  0.600000E+01  0.600000E+01  0.100000E+01
     1          7     1     2  0.700000E+01  0.700000E+01  0.100000E+01
     1          8     1     2  0.800000E+01  0.800000E+01  0.100000E+01
     1          9     1     2  0.900000E+01  0.900000E+01  0.100000E+01
     1         10     1     2  0.100000E+02  0.100000E+02  0.100000E+01
