SUMMARY OF JOB INFORMATION
  STEP      INC     ATT  ITRS     TOT TIME     STEP TIME      INC TIME
     1          1     1     3  0.100000E+01  0.100000E+01  0.100000E+01
     1          2     1     3  0.200000E+01  0.200000E+01  0.100000E+01
     1          3     1     2  0.300000E+01  0.300000E+01  0.100000E+01
     1          4     1     2  0.400000E+01  0.400000E+01  0.100000E+01
     1          5     1     2  0.500000E+01  0.500000E+01  0.100000E+01
     1          6     1     2  0.600000E+01  0.600000E+01  0.100000E+01
     1          7     1     2  0.700000E+01  0.700000E+01  0.100000E+01
     1          8     1     2  0.800000E+01  0.800000E+01  0.100000E+01
     1          9     1     2  0.900000E+01  0.900000E+01  0.100000E+01
     1         10     1     2  0.100000E+02  0.100000E+02  0.100000E+01
     1         11     1     2  0.110000E+02  0.110000E+02  0.100000E+01
     1         12     1     2  0.120000E+02  0.120000E+02  0.100000E+01
     1         13     1     2  0.130000E+02  0.130000E+02  0.100000E+01
     1         14     1     2  0.140000E+02  0.140000E+02  0.100000E+01
     1         15     1     2  0.150000E+02  0.150000E+02  0.100000E+01
     1         16     1     2  0.160000E+02  0.160000E+02  0.100000E+01
     1         17     1     2  0.170000E+02  0.170000E+02  0.100000E+01
     1         18     1     2  0.180000E+02  0.180000E+02  0.100000E+01
     1         19     1     2  0.190000E+02  0.190000E+02  0.100000E+01
     1         20     1     2  0.200000E+02  0.200000E+02  0.100000E+01
     1         21     1     2  0.210000E+02  0.210000E+02  0.100000E+01
     1         22     1     2  0.220000E+02  0.220000E+02  0.100000E+01
     1         23     1     2  0.230000E+02  0.230000E+02  0.100000E+01
     1         24     1     2  0.240000E+02  0.240000E+02  0.100000E+01
     1         25     1     2  0.250000E+02  0.250000E+02  0.100000E+01
     1         26     1     2  0.260000E+02  0.260000E+02  0.100000E+01
     1         27     1     2  0.270000E+02  0.270000E+02  0.100000E+01
     1         28     1     2  0.280000E+02  0.280000E+02  0.100000E+01
     1         29     1     2  0.290000E+02  0.290000E+02  0.100000E+01
     1         30     1     2  0.300000E+02  0.300000E+02  0.100000E+01
